Version 4.1
SHEET 1 880 680
WIRE 160 64 64 64
WIRE 272 64 160 64
WIRE 368 64 272 64
WIRE 64 128 64 64
WIRE 160 128 160 64
WIRE 272 128 272 64
WIRE 64 288 64 208
WIRE 160 288 160 192
WIRE 160 288 64 288
WIRE 272 288 272 208
WIRE 272 288 160 288
WIRE 368 288 272 288
FLAG 368 64 +
IOPIN 368 64 Out
FLAG 368 288 -
IOPIN 368 288 Out
SYMBOL current 64 208 R180
WINDOW 0 24 80 Left 2
WINDOW 3 24 52 Left 2
WINDOW 123 0 0 Left 0
WINDOW 39 0 0 Left 0
SYMATTR InstName I1
SYMATTR Value 2m
SYMBOL diode 144 128 R0
SYMATTR InstName D1
SYMATTR Value D1
SYMBOL res 256 112 R0
SYMATTR InstName R1
SYMATTR Value {R}
TEXT -376 80 Left 2 !.model D1 D(Is=5e-16)\n \n.step param R 10 1k 10\n \n.op
